@<TRIPOS>MOLECULE
1.sdf
 45 47 0 0 0
SMALL
GASTEIGER

@<TRIPOS>ATOM
      1 C          35.3057   14.6424   22.4737 C.3     1  UNL1        0.0788
      2 H          34.3364   14.6132   21.9733 H       1  UNL1        0.0660
      3 H          35.3309   15.5489   23.0778 H       1  UNL1        0.0660
      4 H          36.1026   14.7181   21.7310 H       1  UNL1        0.0660
      5 O          35.4849   13.5049   23.3195 O.3     1  UNL1       -0.4951
      6 C          35.5287   12.2792   22.6601 C.ar    1  UNL1        0.1201
      7 C          35.2993   12.1206   21.2732 C.ar    1  UNL1       -0.0194
      8 H          35.0682   12.9553   20.6274 H       1  UNL1        0.0654
      9 C          35.3841   10.8242   20.6929 C.ar    1  UNL1       -0.0504
     10 H          35.2259   10.7099   19.6297 H       1  UNL1        0.0625
     11 C          35.8294   11.1547   23.4176 C.ar    1  UNL1       -0.0194
     12 H          36.0047   11.2805   24.4730 H       1  UNL1        0.0654
     13 C          35.8885    9.8766   22.8516 C.ar    1  UNL1       -0.0504
     14 H          36.1042    9.0337   23.4925 H       1  UNL1        0.0625
     15 C          35.6648    9.6954   21.4915 C.ar    1  UNL1       -0.0134
     16 C          35.7322    8.3942   20.9370 C.ar    1  UNL1        0.0397
     17 C          36.7903    7.5208   20.9910 C.ar    1  UNL1        0.1284
     18 C          38.1622    7.7142   21.6499 C.2     1  UNL1        0.2624
     19 O          38.5960    8.8222   21.9241 O.2     1  UNL1       -0.2685
     20 N          38.8064    6.5711   21.9099 N.am    1  UNL1       -0.3104
     21 H          38.3819    5.6896   21.6895 H       1  UNL1        0.1490
     22 C          40.1688    6.4730   22.5034 C.3     1  UNL1        0.0091
     23 H          40.3070    5.4221   22.7625 H       1  UNL1        0.0459
     24 H          40.8858    6.7272   21.7230 H       1  UNL1        0.0459
     25 C          40.3380    7.3649   23.7348 C.3     1  UNL1       -0.0495
     26 H          39.5408    7.1873   24.4579 H       1  UNL1        0.0245
     27 H          41.2824    7.1473   24.2337 H       1  UNL1        0.0245
     28 H          40.3432    8.4243   23.4834 H       1  UNL1        0.0245
     29 N          36.4208    6.4155   20.3396 N.ar    1  UNL1       -0.2714
     30 H          36.9956    5.6252   20.2426 H       1  UNL1        0.1891
     31 N          35.2484    6.5127   19.8765 N.ar    1  UNL1       -0.1724
     32 C          34.7226    7.6867   20.2223 C.ar    1  UNL1        0.1045
     33 C          33.4445    8.1599   19.9242 C.ar    1  UNL1        0.0457
     34 C          32.6173    8.6202   20.9320 C.ar    1  UNL1       -0.0271
     35 H          32.9704    8.6289   21.9547 H       1  UNL1        0.0641
     36 C          31.3230    9.0804   20.6402 C.ar    1  UNL1        0.0831
     37 CL         30.2887    9.6486   21.9019 Cl      1  UNL1       -0.0797
     38 C          30.8551    9.0541   19.3351 C.ar    1  UNL1        0.1386
     39 O          29.6158    9.5193   19.0444 O.3     1  UNL1       -0.5052
     40 H          29.4538    9.4474   18.1122 H       1  UNL1        0.2922
     41 C          31.6897    8.5793   18.3138 C.ar    1  UNL1        0.0234
     42 H          31.3549    8.5426   17.2891 H       1  UNL1        0.0691
     43 C          32.9637    8.1068   18.6239 C.ar    1  UNL1        0.1296
     44 O          33.7433    7.6314   17.6476 O.3     1  UNL1       -0.5060
     45 H          33.2984    7.6012   16.7976 H       1  UNL1        0.2922
@<TRIPOS>BOND
     1     1     2    1
     2     1     3    1
     3     1     4    1
     4     1     5    1
     5     5     6    1
     6     6     7   ar
     7     6    11   ar
     8     7     8    1
     9     7     9   ar
    10     9    10    1
    11     9    15   ar
    12    11    12    1
    13    11    13   ar
    14    13    14    1
    15    13    15   ar
    16    15    16    1
    17    16    17   ar
    18    16    32   ar
    19    17    18    1
    20    17    29   ar
    21    18    19    2
    22    18    20   am
    23    20    21    1
    24    20    22    1
    25    22    23    1
    26    22    24    1
    27    22    25    1
    28    25    26    1
    29    25    27    1
    30    25    28    1
    31    29    30    1
    32    29    31   ar
    33    31    32   ar
    34    32    33    1
    35    33    34   ar
    36    33    43   ar
    37    34    35    1
    38    34    36   ar
    39    36    37    1
    40    36    38   ar
    41    38    39    1
    42    38    41   ar
    43    39    40    1
    44    41    42    1
    45    41    43   ar
    46    43    44    1
    47    44    45    1
